data/sourcebus_11000.trafo_75589759_75589759/Loads.dss
New Load.75596332_nmi_elem_75596332 bus1=3098898.1 kV=0.23094010767585033 Vminpu=0.7 Vmaxpu=1.3 model=1 kW=0.0 kvar=0.0 Phases=1
New Load.75596359_nmi_elem_75596359 bus1=3098910.1 kV=0.23094010767585033 Vminpu=0.7 Vmaxpu=1.3 model=1 kW=0.0 kvar=0.0 Phases=1
New Load.75596605_nmi_elem_75596605 bus1=3098965.3 kV=0.23094010767585033 Vminpu=0.7 Vmaxpu=1.3 model=1 kW=0.0 kvar=0.0 Phases=1
New Load.NMI_elem_75592263 bus1=3098888.3 kV=0.23094010767585033 Vminpu=0.7 Vmaxpu=1.3 model=1 kW=3.087296589903856 kvar=0.6269023105258055 Phases=1
New Load.NMI_elem_75592264 bus1=3098889.3 kV=0.23094010767585033 Vminpu=0.7 Vmaxpu=1.3 model=1 kW=2.0193109628721846 kvar=0.4100385795243871 Phases=1
New Load.NMI_elem_75592266 bus1=3098891.1 kV=0.23094010767585033 Vminpu=0.7 Vmaxpu=1.3 model=1 kW=0.9825949863689324 kvar=0.199524421877763 Phases=1
New Load.NMI_elem_75592271 bus1=3098893.1 kV=0.23094010767585033 Vminpu=0.7 Vmaxpu=1.3 model=1 kW=2.8443538354697715 kvar=0.5775706801996845 Phases=1
New Load.NMI_elem_75592272 bus1=3098894.1 kV=0.23094010767585033 Vminpu=0.7 Vmaxpu=1.3 model=1 kW=2.9766494107136774 kvar=0.6044344425165171 Phases=1
New Load.NMI_elem_75592291 bus1=3098898.1 kV=0.23094010767585033 Vminpu=0.7 Vmaxpu=1.3 model=1 kW=2.0445672720053545 kvar=0.415167091829527 Phases=1
New Load.NMI_elem_75592296 bus1=3098901.1 kV=0.23094010767585033 Vminpu=0.7 Vmaxpu=1.3 model=1 kW=1.420372961195165 kvar=0.28841903110104455 Phases=1
New Load.NMI_elem_75592301 bus1=3098903.1 kV=0.23094010767585033 Vminpu=0.7 Vmaxpu=1.3 model=1 kW=2.9550010146599495 kvar=0.6000385482089726 Phases=1
New Load.NMI_elem_75592303 bus1=3098904.1 kV=0.23094010767585033 Vminpu=0.7 Vmaxpu=1.3 model=1 kW=1.7438956143575082 kvar=0.3541131077369495 Phases=1
New Load.NMI_elem_75592306 bus1=3098905.3 kV=0.23094010767585033 Vminpu=0.7 Vmaxpu=1.3 model=1 kW=4.021783927533717 kvar=0.8166580576843615 Phases=1
New Load.NMI_elem_75592307 bus1=3098906.1 kV=0.23094010767585033 Vminpu=0.7 Vmaxpu=1.3 model=1 kW=3.482980372083401 kvar=0.7072493293697809 Phases=1
New Load.NMI_elem_75592312 bus1=3098907.3 kV=0.23094010767585033 Vminpu=0.7 Vmaxpu=1.3 model=1 kW=0.8298537865777691 kvar=0.16850899842453854 Phases=1
New Load.NMI_elem_75592318 bus1=3098910.1 kV=0.23094010767585033 Vminpu=0.7 Vmaxpu=1.3 model=1 kW=3.36511713734007 kvar=0.683316178784809 Phases=1
New Load.NMI_elem_75592321 bus1=3098911.3 kV=0.23094010767585033 Vminpu=0.7 Vmaxpu=1.3 model=1 kW=2.6194515640099736 kvar=0.5319023261835127 Phases=1
New Load.NMI_elem_75592331 bus1=3098915.3 kV=0.23094010767585033 Vminpu=0.7 Vmaxpu=1.3 model=1 kW=2.9814602673452923 kvar=0.6054113286206352 Phases=1
New Load.NMI_elem_75592334 bus1=3098916.1 kV=0.23094010767585033 Vminpu=0.7 Vmaxpu=1.3 model=1 kW=1.1666060087342165 kvar=0.23688945362115135 Phases=1
New Load.NMI_elem_75592348 bus1=3098917.3 kV=0.23094010767585033 Vminpu=0.7 Vmaxpu=1.3 model=1 kW=1.2014839164334812 kvar=0.24397171484428049 Phases=1
New Load.NMI_elem_75592349 bus1=3098918.3 kV=0.23094010767585033 Vminpu=0.7 Vmaxpu=1.3 model=1 kW=3.2532672439919885 kvar=0.6606040892494913 Phases=1
New Load.NMI_elem_75592352 bus1=3098920.3 kV=0.23094010767585033 Vminpu=0.7 Vmaxpu=1.3 model=1 kW=3.230416363174626 kvar=0.6559640199964104 Phases=1
New Load.NMI_elem_75592354 bus1=3098921.1 kV=0.23094010767585033 Vminpu=0.7 Vmaxpu=1.3 model=1 kW=2.461899450238627 kvar=0.4999100049810469 Phases=1
New Load.NMI_elem_75592359 bus1=3098923.1 kV=0.23094010767585033 Vminpu=0.7 Vmaxpu=1.3 model=1 kW=2.13837691177342 kvar=0.4342159516353888 Phases=1
New Load.NMI_elem_75592360 bus1=3098924.1 kV=0.23094010767585033 Vminpu=0.7 Vmaxpu=1.3 model=1 kW=1.6392618912597139 kvar=0.3328663240675621 Phases=1
New Load.NMI_elem_75592361 bus1=3098925.1 kV=0.23094010767585033 Vminpu=0.7 Vmaxpu=1.3 model=1 kW=1.4937368043702708 kvar=0.3033161948351447 Phases=1
New Load.NMI_elem_75592362 bus1=3098926.1 kV=0.23094010767585033 Vminpu=0.7 Vmaxpu=1.3 model=1 kW=1.1088771055204545 kvar=0.22516709985469482 Phases=1
New Load.NMI_elem_75592363 bus1=3098927.3 kV=0.23094010767585033 Vminpu=0.7 Vmaxpu=1.3 model=1 kW=2.7060449188306155 kvar=0.5494858568331973 Phases=1
New Load.NMI_elem_75592370 bus1=3098929.1 kV=0.23094010767585033 Vminpu=0.7 Vmaxpu=1.3 model=1 kW=1.0812152533743427 kvar=0.2195501212072495 Phases=1
New Load.NMI_elem_75592392 bus1=3098931.1 kV=0.23094010767585033 Vminpu=0.7 Vmaxpu=1.3 model=1 kW=1.7258553607774914 kvar=0.35044987800749344 Phases=1
New Load.NMI_elem_75592395 bus1=3098934.1 kV=0.23094010767585033 Vminpu=0.7 Vmaxpu=1.3 model=1 kW=2.065012953901179 kvar=0.41931876461104195 Phases=1
New Load.NMI_elem_75592397 bus1=3098936.3 kV=0.23094010767585033 Vminpu=0.7 Vmaxpu=1.3 model=1 kW=2.4330349986317463 kvar=0.4940488280978187 Phases=1
New Load.NMI_elem_75592405 bus1=3098940.1 kV=0.23094010767585033 Vminpu=0.7 Vmaxpu=1.3 model=1 kW=1.6200189235217932 kvar=0.32895887281207653 Phases=1
New Load.NMI_elem_75592414 bus1=3098941.1 kV=0.23094010767585033 Vminpu=0.7 Vmaxpu=1.3 model=1 kW=3.289347980546292 kvar=0.6679305952888965 Phases=1
New Load.NMI_elem_75592415 bus1=3098942.1 kV=0.23094010767585033 Vminpu=0.7 Vmaxpu=1.3 model=1 kW=1.4384132147751818 kvar=0.2920822608305006 Phases=1
New Load.NMI_elem_75592420 bus1=3098943.3 kV=0.23094010767585033 Vminpu=0.7 Vmaxpu=1.3 model=1 kW=2.748138996780169 kvar=0.558033423922257 Phases=1
New Load.NMI_elem_75592428 bus1=3098944.3 kV=0.23094010767585033 Vminpu=0.7 Vmaxpu=1.3 model=1 kW=2.8419484071539634 kvar=0.5770822371476254 Phases=1
New Load.NMI_elem_75592430 bus1=3098945.3 kV=0.23094010767585033 Vminpu=0.7 Vmaxpu=1.3 model=1 kW=1.4925340902123672 kvar=0.30307197330911523 Phases=1
New Load.NMI_elem_75592435 bus1=3098947.3 kV=0.23094010767585033 Vminpu=0.7 Vmaxpu=1.3 model=1 kW=1.9074609548269679 kvar=0.3873264666988228 Phases=1
New Load.NMI_elem_75592443 bus1=3098948.1 kV=0.23094010767585033 Vminpu=0.7 Vmaxpu=1.3 model=1 kW=1.9627845444220573 kvar=0.398560400703467 Phases=1
New Load.NMI_elem_75592446 bus1=3098949.3 kV=0.23094010767585033 Vminpu=0.7 Vmaxpu=1.3 model=1 kW=2.288712740597343 kvar=0.4647429436816775 Phases=1
New Load.NMI_elem_75592451 bus1=3098950.3 kV=0.23094010767585033 Vminpu=0.7 Vmaxpu=1.3 model=1 kW=1.9014476134317189 kvar=0.3861054056491685 Phases=1
New Load.NMI_elem_75592452 bus1=3098951.3 kV=0.23094010767585033 Vminpu=0.7 Vmaxpu=1.3 model=1 kW=2.1888897594340286 kvar=0.4444730228261615 Phases=1
New Load.NMI_elem_75592540 bus1=3098961.3 kV=0.23094010767585033 Vminpu=0.7 Vmaxpu=1.3 model=1 kW=1.760733268476756 kvar=0.3575321392306226 Phases=1
New Load.NMI_elem_75592559 bus1=3098964.1 kV=0.23094010767585033 Vminpu=0.7 Vmaxpu=1.3 model=1 kW=1.5201959423584792 kvar=0.3086889519565606 Phases=1
New Load.NMI_elem_75592564 bus1=3098965.3 kV=0.23094010767585033 Vminpu=0.7 Vmaxpu=1.3 model=1 kW=3.5322907349803763 kvar=0.7172622256150174 Phases=1
New Load.NMI_elem_75592570 bus1=3098966.1 kV=0.23094010767585033 Vminpu=0.7 Vmaxpu=1.3 model=1 kW=3.8389757340234714 kvar=0.7795372707572491 Phases=1
New Load.NMI_elem_75592573 bus1=3098968.3 kV=0.23094010767585033 Vminpu=0.7 Vmaxpu=1.3 model=1 kW=2.045769986163258 kvar=0.4154113133555565 Phases=1
New Load.NMI_elem_75592617 bus1=3098972.1 kV=0.23094010767585033 Vminpu=0.7 Vmaxpu=1.3 model=1 kW=2.0120946779247624 kvar=0.4085732503682103 Phases=1
New Load.NMI_elem_75592653 bus1=3098976.3 kV=0.23094010767585033 Vminpu=0.7 Vmaxpu=1.3 model=1 kW=2.2550374323588467 kvar=0.4579048806943312 Phases=1
New Load.NMI_elem_75592720 bus1=3098984.3 kV=0.23094010767585033 Vminpu=0.7 Vmaxpu=1.3 model=1 kW=2.31637447804632 kvar=0.4703598990388762 Phases=1
New Load.NMI_elem_75593016 bus1=3099054.3 kV=0.23094010767585033 Vminpu=0.7 Vmaxpu=1.3 model=1 kW=4.202186922122424 kvar=0.853290448139908 Phases=1
New Load.NMI_elem_75593042 bus1=3099064.1 kV=0.23094010767585033 Vminpu=0.7 Vmaxpu=1.3 model=1 kW=2.000067765739994 kvar=0.40613108168840845 Phases=1
New Load.NMI_elem_75593069 bus1=3099072.1 kV=0.23094010767585033 Vminpu=0.7 Vmaxpu=1.3 model=1 kW=2.7493417109380727 kvar=0.5582776454482864 Phases=1
New Load.NMI_elem_75593084 bus1=3099074.1 kV=0.23094010767585033 Vminpu=0.7 Vmaxpu=1.3 model=1 kW=4.365752377289018 kvar=0.8865038303920278 Phases=1
New Load.NMI_elem_75593103 bus1=3099075.1 kV=0.23094010767585033 Vminpu=0.7 Vmaxpu=1.3 model=1 kW=3.267699584492563 kvar=0.6635347009813519 Phases=1
New Load.NMI_elem_75593112 bus1=3099078.1 kV=0.23094010767585033 Vminpu=0.7 Vmaxpu=1.3 model=1 kW=1.9146771250772558 kvar=0.3887917725647533 Phases=1
New Load.NMI_elem_75593170 bus1=3099082.1 kV=0.23094010767585033 Vminpu=0.7 Vmaxpu=1.3 model=1 kW=7.160230163591857 kvar=1.453946746850159 Phases=1
New Load.NMI_elem_75593303 bus1=3099103.1.3 kV=0.4 Vminpu=0.7 Vmaxpu=1.3 model=1 kW=35.3066345250994 kvar=7.169317918160974 Phases=2
New Load.NMI_elem_75593667 bus1=3099153.3 kV=0.23094010767585033 Vminpu=0.7 Vmaxpu=1.3 model=1 kW=3.0951494169631224 kvar=0.6284968950706505 Phases=1
New Load.NMI_elem_75593713 bus1=3099161.1 kV=0.23094010767585033 Vminpu=0.7 Vmaxpu=1.3 model=1 kW=3.0951494169631224 kvar=0.6284968950706505 Phases=1
